test/data/transmission/case5_pwlc_withload.m
% tests pwl cost functions

function mpc = case5_pwlc
mpc.version = '2';
mpc.baseMVA = 100.0;

%% bus data
%	bus_i	type	Pd	Qd	Gs	Bs	area	Vm	Va	baseKV	zone	Vmax	Vmin
mpc.bus = [
	1	 2	 0.0	 0.0	 0.0	 0.0	 1	    1.07762	    2.80377	 230.0	 1	    1.10000	    0.90000;
	2	 1	 300.0	 98.61	 0.0	 0.0	 1	    1.08407	   -0.73465	 230.0	 1	    1.10000	    0.90000;
	3	 2	 300.0	 98.61	 0.0	 0.0	 1	    1.10000	   -0.55972	 230.0	 1	    1.10000	    0.90000;
	4	 3	 390.0	 131.47	 0.0	 0.0	 1	    1.06414	    0.00000	 230.0	 1	    1.10000	    0.90000;
	5	 1	 8.0	 1.2	 0.0	 0.0	 1	    1.00000	    0.00000	 230.0	 1	    1.10000	    0.90000;
	10	 2	 0.0	 0.0	 0.0	 0.0	 1	    1.06907	    3.59033	 230.0	 1	    1.10000	    0.90000;
];

%% generator data
%	bus	Pg	Qg	Qmax	Qmin	Vg	mBase	status	Pmax	Pmin
mpc.gen = [
	1	 40.0	 30.0	 30.0	 -30.0	 1.07762	 100.0	 1	 40.0	 0.0;
	1	 170.0	 127.5	 127.5	 -127.5	 1.07762	 100.0	 1	 170.0	 0.0;
	3	 324.498	 390.0	 390.0	 -390.0	 1.1	 100.0	 1	 520.0	 0.0;
	4	 0.0	 -10.802	 150.0	 -150.0	 1.06414	 100.0	 1	 200.0	 0.0;
	10	 470.694	 -165.039	 450.0	 -450.0	 1.06907	 100.0	 1	 600.0	 0.0;
];

%% generator cost data
%	1	startup	shutdown	n	x1	y1	...	xn	yn
mpc.gencost = [
	1	0.0	0.0	4	 -0.1	   0.0	  0.0	   0.0	  0.1	   0.0	  0.2	   0.0	   2.0;  % tests zero cost
	1	0.0	0.0	4	  0.0	 841.0	 20.0	 841.0	 100.0	 841.0	150.0	 841.0	   2.0;  % tests constant cost
	1	0.0	0.0	4.0	170.0	4772.0	231.0	6203.0	293.0	7855.0	355.0	9738.0	   2.0;  % tests poorly typed ncost value
	1	0.0	0.0	4	 22.0	1122.0	 33.0	1417.0	 44.0	1742.0	 55.0	2075.0	   2.0;
	1	0.0	0.0	4	  7.0	 897.0	  7.0	 897.0	 9.0	1479.0	 10.0	1791.0	   2.0;
];

%% branch data
%	fbus	tbus	r	x	b	rateA	rateB	rateC	ratio	angle	status	angmin	angmax
mpc.branch = [
	1	 2	 0.00281	 0.0281	 0.00712	 400.0	 400.0	 400.0	 0.0	 0.0	 1	 -30.0	 30.0;
	1	 4	 0.00304	 0.0304	 0.00658	 426	 426	 426	 0.0	 0.0	 1	 -30.0	 30.0;
	1	 10	 0.00064	 0.0064	 0.03126	 426	 426	 426	 0.0	 0.0	 1	 -30.0	 30.0;
	2	 3	 0.00108	 0.0108	 0.01852	 426	 426	 426	 0.0	 0.0	 1	 -30.0	 30.0;
	3	 4	 0.00297	 0.0297	 0.00674	 426	 426	 426	 0.0	 0.0	 1	 -30.0	 30.0;
	4	 10	 0.00297	 0.0297	 0.00674	 240.0	 240.0	 240.0	 0.0	 0.0	 1	 -30.0	 30.0;
	2	 5	 0.00297	 0.0297	 0.00674	 426	 426	 426	 0.0	  0.0	 1	 -30.0	 30.0;
];

mpc.dcline = [
	1	 10	 1	 10	 10	 25.91	 -4.16	 1.1	 0.92617	 10	 900 -900 900 -900 900	 0	 0	 0	 0	 0	 0	 0	 0
]

